<?xml version="1.0" encoding="UTF-8"?>

<!-- generated on 2023-10-16 10:58:11 by Eclipse SUMO netedit Version 1.14.1
<configuration xmlns:xsi="http://www.w3.org/2001/XMLSchema-instance" xsi:noNamespaceSchemaLocation="http://sumo.dlr.de/xsd/netconvertConfiguration.xsd">

    <input>
        <sumo-net-file value="C:\Users\Ricsi\Simulation\oktogon.net.xml"/>
    </input>

    <output>
        <output-file value="C:\Users\Ricsi\Simulation\oktogon.net.xml"/>
    </output>

    <processing>
        <geometry.min-radius.fix.railways value="false"/>
        <geometry.max-grade.fix value="false"/>
        <offset.disable-normalization value="true"/>
        <lefthand value="false"/>
    </processing>

    <junctions>
        <no-turnarounds value="true"/>
        <junctions.corner-detail value="5"/>
        <junctions.limit-turn-speed value="5.5"/>
        <rectangular-lane-cut value="false"/>
    </junctions>

    <pedestrian>
        <walkingareas value="false"/>
    </pedestrian>

    <netedit>
        <route-files value="C:\Users\Ricsi\Simulation\oktogon.rou.xml"/>
    </netedit>

</configuration>
-->

<net version="1.9" junctionCornerDetail="5" limitTurnSpeed="5.50" xmlns:xsi="http://www.w3.org/2001/XMLSchema-instance" xsi:noNamespaceSchemaLocation="http://sumo.dlr.de/xsd/net_file.xsd">

    <location netOffset="0.00,0.00" convBoundary="-500.35,-493.39,352.32,271.32" origBoundary="-10000000000.00,-10000000000.00,10000000000.00,10000000000.00" projParameter="!"/>

    <edge id=":J0_0" function="internal">
        <lane id=":J0_0_0" index="0" speed="6.57" length="9.19" shape="16.55,-233.79 14.10,-233.44 12.34,-232.36 11.27,-230.56 10.89,-228.03"/>
    </edge>
    <edge id=":J0_1" function="internal">
        <lane id=":J0_1_0" index="0" speed="7.27" length="11.66" shape="7.93,-242.65 8.42,-240.19 10.03,-238.42 12.74,-237.36 16.57,-236.99"/>
    </edge>
    <edge id=":J0_2" function="internal">
        <lane id=":J0_2_0" index="0" speed="13.89" length="14.60" shape="7.93,-242.65 7.69,-228.07"/>
        <lane id=":J0_2_1" index="1" speed="13.89" length="14.60" shape="4.73,-242.71 4.49,-228.11"/>
    </edge>
    <edge id=":J0_4" function="internal">
        <lane id=":J0_4_0" index="0" speed="6.68" length="9.37" shape="-7.50,-236.97 -4.99,-237.35 -3.19,-238.46 -2.08,-240.29 -1.67,-242.84"/>
    </edge>
    <edge id=":J0_5" function="internal">
        <lane id=":J0_5_0" index="0" speed="6.47" length="9.03" shape="-1.91,-228.18 -2.23,-230.64 -3.26,-232.39 -5.01,-233.44 -7.47,-233.77"/>
    </edge>
    <edge id=":J0_6" function="internal">
        <lane id=":J0_6_0" index="0" speed="13.89" length="14.65" shape="-1.91,-228.18 -1.67,-242.84"/>
        <lane id=":J0_6_1" index="1" speed="13.89" length="14.65" shape="1.29,-228.14 1.53,-242.78"/>
    </edge>
    <edge id=":J1_0" function="internal">
        <lane id=":J1_0_0" index="0" speed="13.89" length="20.97" shape="10.78,4.83 -10.18,4.95"/>
        <lane id=":J1_0_1" index="1" speed="13.89" length="20.97" shape="10.77,1.63 -10.21,1.75"/>
    </edge>
    <edge id=":J1_2" function="internal">
        <lane id=":J1_2_0" index="0" speed="13.89" length="20.98" shape="5.19,-10.38 5.00,10.60"/>
        <lane id=":J1_2_1" index="1" speed="13.89" length="20.98" shape="1.99,-10.41 1.80,10.58"/>
    </edge>
    <edge id=":J1_4" function="internal">
        <lane id=":J1_4_0" index="0" speed="13.89" length="21.01" shape="-10.26,-4.65 10.75,-4.77"/>
        <lane id=":J1_4_1" index="1" speed="13.89" length="21.01" shape="-10.24,-1.45 10.76,-1.57"/>
    </edge>
    <edge id=":J1_6" function="internal">
        <lane id=":J1_6_0" index="0" speed="13.89" length="21.00" shape="-4.60,10.53 -4.41,-10.47"/>
        <lane id=":J1_6_1" index="1" speed="13.89" length="21.00" shape="-1.40,10.55 -1.21,-10.44"/>
    </edge>
    <edge id=":J10_0" function="internal">
        <lane id=":J10_0_0" index="0" speed="6.52" length="9.04" shape="148.31,138.86 148.66,141.30 149.71,143.05 151.46,144.11 153.91,144.47"/>
    </edge>
    <edge id=":J10_1" function="internal">
        <lane id=":J10_1_0" index="0" speed="13.89" length="14.38" shape="148.31,138.86 148.30,153.23"/>
    </edge>
    <edge id=":J10_2" function="internal">
        <lane id=":J10_2_0" index="0" speed="13.89" length="11.18" shape="142.72,144.44 153.91,144.47"/>
        <lane id=":J10_2_1" index="1" speed="13.89" length="11.18" shape="142.72,147.64 153.90,147.67"/>
    </edge>
    <edge id=":J10_4" function="internal">
        <lane id=":J10_4_0" index="0" speed="6.50" length="9.01" shape="142.72,147.64 145.17,147.99 146.91,149.04 147.96,150.79 148.30,153.23"/>
    </edge>
    <edge id=":J16_0" function="internal">
        <lane id=":J16_0_0" index="0" speed="13.89" length="0.39" shape="22.38,-26.14 22.49,-26.11 22.57,-26.09 22.64,-26.05 22.74,-26.00"/>
    </edge>
    <edge id=":J17_0" function="internal">
        <lane id=":J17_0_0" index="0" speed="12.67" length="6.27" shape="37.85,-18.19 39.52,-17.46 40.77,-17.23 42.08,-17.27 43.95,-17.35"/>
    </edge>
    <edge id=":J17_1" function="internal">
        <lane id=":J17_1_0" index="0" speed="7.67" length="5.68" shape="37.85,-18.19 39.07,-17.41 40.04,-16.43 40.79,-15.25 41.29,-13.88"/>
    </edge>
    <edge id=":J18_0" function="internal">
        <lane id=":J18_0_0" index="0" speed="6.51" length="9.02" shape="50.44,4.72 48.00,5.07 46.26,6.12 45.21,7.87 44.85,10.32"/>
    </edge>
    <edge id=":J18_1" function="internal">
        <lane id=":J18_1_0" index="0" speed="13.89" length="12.81" shape="50.44,4.72 37.64,4.75"/>
        <lane id=":J18_1_1" index="1" speed="13.89" length="12.81" shape="50.44,1.52 37.63,1.55"/>
    </edge>
    <edge id=":J18_3" function="internal">
        <lane id=":J18_3_0" index="0" speed="7.88" length="11.04" shape="42.12,-10.73 43.22,-8.16 44.97,-6.34 47.38,-5.24 50.43,-4.88"/>
    </edge>
    <edge id=":J18_4" function="internal">
        <lane id=":J18_4_0" index="0" speed="13.89" length="12.82" shape="37.61,-4.85 50.43,-4.88"/>
        <lane id=":J18_4_1" index="1" speed="13.89" length="12.82" shape="37.62,-1.65 50.44,-1.68"/>
    </edge>
    <edge id=":J19_0" function="internal">
        <lane id=":J19_0_0" index="0" speed="7.88" length="6.57" shape="48.34,19.91 46.33,20.04 44.66,20.43 43.32,21.08 42.32,21.99"/>
    </edge>
    <edge id=":J19_1" function="internal">
        <lane id=":J19_1_0" index="0" speed="9.39" length="6.34" shape="44.84,16.41 44.71,18.24 44.30,19.45 43.52,20.54 42.32,21.99"/>
    </edge>
    <edge id=":J2_0" function="internal">
        <lane id=":J2_0_0" index="0" speed="13.89" length="14.76" shape="-4.63,153.22 -4.67,138.46"/>
        <lane id=":J2_0_1" index="1" speed="13.89" length="14.76" shape="-1.43,153.21 -1.47,138.45"/>
    </edge>
    <edge id=":J2_2" function="internal">
        <lane id=":J2_2_0" index="0" speed="6.58" length="9.22" shape="8.13,138.43 8.48,141.04 9.51,142.90 11.22,144.02 13.60,144.39"/>
    </edge>
    <edge id=":J2_3" function="internal">
        <lane id=":J2_3_0" index="0" speed="13.89" length="14.76" shape="4.93,138.44 4.97,153.20"/>
        <lane id=":J2_3_1" index="1" speed="13.89" length="14.76" shape="1.73,138.44 1.77,153.20"/>
    </edge>
    <edge id=":J2_5" function="internal">
        <lane id=":J2_5_0" index="0" speed="6.49" length="9.03" shape="-10.27,144.04 -7.81,143.70 -6.06,142.66 -5.01,140.92 -4.67,138.46"/>
    </edge>
    <edge id=":J2_6" function="internal">
        <lane id=":J2_6_0" index="0" speed="13.89" length="23.75" shape="-10.27,144.04 13.60,144.39"/>
        <lane id=":J2_6_1" index="1" speed="13.89" length="23.75" shape="-10.29,147.24 13.33,147.59"/>
    </edge>
    <edge id=":J2_8" function="internal">
        <lane id=":J2_8_0" index="0" speed="8.20" length="14.83" shape="-10.29,147.24 -5.02,147.64 -1.25,148.77 1.01,150.63 1.77,153.20"/>
    </edge>
    <edge id=":J20_0" function="internal">
        <lane id=":J20_0_0" index="0" speed="13.89" length="0.88" shape="27.34,40.47 27.18,40.67 27.04,40.79 26.88,40.87 26.64,40.97"/>
    </edge>
    <edge id=":J21_0" function="internal">
        <lane id=":J21_0_0" index="0" speed="6.56" length="9.11" shape="154.05,4.62 151.61,4.97 149.85,6.03 148.77,7.80 148.38,10.28"/>
    </edge>
    <edge id=":J21_1" function="internal">
        <lane id=":J21_1_0" index="0" speed="13.89" length="14.57" shape="154.05,4.62 139.50,4.61"/>
        <lane id=":J21_1_1" index="1" speed="13.89" length="14.57" shape="154.06,1.42 139.49,1.41"/>
    </edge>
    <edge id=":J21_3" function="internal">
        <lane id=":J21_3_0" index="0" speed="6.73" length="9.41" shape="148.11,-10.79 148.57,-8.25 149.72,-6.44 151.56,-5.35 154.08,-4.98"/>
    </edge>
    <edge id=":J21_4" function="internal">
        <lane id=":J21_4_0" index="0" speed="6.42" length="9.04" shape="139.48,-4.99 141.95,-5.35 143.67,-6.41 144.66,-8.18 144.91,-10.66"/>
    </edge>
    <edge id=":J21_5" function="internal">
        <lane id=":J21_5_0" index="0" speed="13.89" length="14.59" shape="139.48,-4.99 154.08,-4.98"/>
        <lane id=":J21_5_1" index="1" speed="13.89" length="14.59" shape="139.49,-1.79 154.07,-1.78"/>
    </edge>
    <edge id=":J21_7" function="internal">
        <lane id=":J21_7_0" index="0" speed="6.51" length="9.15" shape="145.18,10.23 144.86,7.77 143.81,6.01 142.02,4.96 139.50,4.61"/>
    </edge>
    <edge id=":J22_0" function="internal">
        <lane id=":J22_0_0" index="0" speed="6.81" length="8.23" shape="-42.40,10.26 -43.20,8.06 -44.41,6.49 -46.03,5.55 -48.04,5.24"/>
    </edge>
    <edge id=":J22_1" function="internal">
        <lane id=":J22_1_0" index="0" speed="13.89" length="13.36" shape="-34.67,5.15 -48.04,5.24"/>
        <lane id=":J22_1_1" index="1" speed="13.89" length="13.36" shape="-34.70,1.95 -48.05,2.04"/>
    </edge>
    <edge id=":J22_3" function="internal">
        <lane id=":J22_3_0" index="0" speed="10.66" length="12.45" shape="-48.08,-4.36 -44.86,-4.69 -41.97,-5.66 -39.41,-7.26 -37.19,-9.49"/>
    </edge>
    <edge id=":J22_4" function="internal">
        <lane id=":J22_4_0" index="0" speed="13.89" length="13.34" shape="-48.07,-1.16 -34.72,-1.25"/>
    </edge>
    <edge id=":J23_0" function="internal">
        <lane id=":J23_0_0" index="0" speed="13.89" length="0.85" shape="-28.78,-19.92 -28.61,-20.12 -28.49,-20.24 -28.33,-20.32 -28.10,-20.41"/>
    </edge>
    <edge id=":J24_0" function="internal">
        <lane id=":J24_0_0" index="0" speed="6.78" length="9.72" shape="15.64,-338.79 13.10,-338.40 11.27,-337.24 10.15,-335.30 9.73,-332.60"/>
    </edge>
    <edge id=":J24_1" function="internal">
        <lane id=":J24_1_0" index="0" speed="13.89" length="21.20" shape="15.64,-338.79 -5.47,-338.20"/>
        <lane id=":J24_1_1" index="1" speed="13.89" length="21.20" shape="15.64,-341.99 -5.64,-341.40"/>
    </edge>
    <edge id=":J24_3" function="internal">
        <lane id=":J24_3_0" index="0" speed="6.48" length="9.03" shape="10.08,-354.01 10.40,-351.55 11.43,-349.79 13.18,-348.74 15.63,-348.39"/>
    </edge>
    <edge id=":J24_4" function="internal">
        <lane id=":J24_4_0" index="0" speed="13.89" length="21.40" shape="10.08,-354.01 9.73,-332.60"/>
        <lane id=":J24_4_1" index="1" speed="13.89" length="21.40" shape="6.88,-354.05 6.53,-332.66"/>
    </edge>
    <edge id=":J24_6" function="internal">
        <lane id=":J24_6_0" index="0" speed="7.79" length="12.72" shape="-5.81,-344.60 -3.10,-345.31 -1.15,-347.14 0.04,-350.08 0.48,-354.13"/>
    </edge>
    <edge id=":J24_7" function="internal">
        <lane id=":J24_7_0" index="0" speed="13.89" length="21.45" shape="-5.81,-344.60 15.64,-345.19"/>
    </edge>
    <edge id=":J24_8" function="internal">
        <lane id=":J24_8_0" index="0" speed="6.35" length="9.04" shape="0.13,-332.79 -0.17,-335.27 -1.21,-337.00 -2.97,-337.98 -5.47,-338.20"/>
    </edge>
    <edge id=":J24_9" function="internal">
        <lane id=":J24_9_0" index="0" speed="13.89" length="21.35" shape="0.13,-332.79 0.48,-354.13"/>
        <lane id=":J24_9_1" index="1" speed="13.89" length="21.35" shape="3.33,-332.73 3.68,-354.09"/>
    </edge>
    <edge id=":J25_0" function="internal">
        <lane id=":J25_0_0" index="0" speed="6.52" length="8.98" shape="-125.09,11.12 -125.49,8.69 -126.57,6.96 -128.32,5.94 -130.74,5.61"/>
    </edge>
    <edge id=":J25_1" function="internal">
        <lane id=":J25_1_0" index="0" speed="8.04" length="14.55" shape="-125.09,11.12 -124.86,5.88 -123.88,2.13 -122.15,-0.12 -119.67,-0.88"/>
    </edge>
    <edge id=":J25_2" function="internal">
        <lane id=":J25_2_0" index="0" speed="13.89" length="11.11" shape="-119.65,5.52 -130.74,5.61"/>
        <lane id=":J25_2_1" index="1" speed="13.89" length="11.11" shape="-119.66,2.32 -130.78,2.41"/>
    </edge>
    <edge id=":J25_4" function="internal">
        <lane id=":J25_4_0" index="0" speed="13.89" length="11.15" shape="-130.84,-3.99 -119.68,-4.08"/>
        <lane id=":J25_4_1" index="1" speed="13.89" length="11.15" shape="-130.81,-0.79 -119.67,-0.88"/>
    </edge>
    <edge id=":J26_0" function="internal">
        <lane id=":J26_0_0" index="0" speed="7.22" length="2.74" shape="144.85,-12.11 145.30,-14.65 145.41,-14.77"/>
    </edge>
    <edge id=":J26_5" function="internal">
        <lane id=":J26_5_0" index="0" speed="7.22" length="9.05" shape="145.41,-14.77 146.89,-16.45 149.61,-17.53 153.48,-17.86"/>
    </edge>
    <edge id=":J26_1" function="internal">
        <lane id=":J26_1_0" index="0" speed="6.52" length="9.03" shape="147.90,-23.49 148.24,-21.04 149.28,-19.29 151.03,-18.23 153.48,-17.86"/>
    </edge>
    <edge id=":J26_2" function="internal">
        <lane id=":J26_2_0" index="0" speed="13.89" length="11.25" shape="147.90,-23.49 148.05,-12.24"/>
    </edge>
    <edge id=":J26_3" function="internal">
        <lane id=":J26_3_0" index="0" speed="13.89" length="14.39" shape="139.09,-17.87 153.48,-17.86"/>
    </edge>
    <edge id=":J26_4" function="internal">
        <lane id=":J26_4_0" index="0" speed="7.45" length="11.83" shape="139.09,-17.87 142.92,-17.54 145.69,-16.49 147.40,-14.72 148.05,-12.24"/>
    </edge>
    <edge id=":J28_0" function="internal">
        <lane id=":J28_0_0" index="0" speed="6.47" length="9.03" shape="148.52,-241.99 148.82,-239.53 149.83,-237.76 151.57,-236.70 154.02,-236.34"/>
    </edge>
    <edge id=":J28_1" function="internal">
        <lane id=":J28_1_0" index="0" speed="13.89" length="14.43" shape="148.52,-241.99 148.34,-227.57"/>
    </edge>
    <edge id=":J28_2" function="internal">
        <lane id=":J28_2_0" index="0" speed="7.39" length="11.78" shape="148.52,-241.99 148.09,-238.13 146.98,-235.38 145.21,-233.73 142.76,-233.19"/>
    </edge>
    <edge id=":J28_3" function="internal">
        <lane id=":J28_3_0" index="0" speed="13.89" length="11.25" shape="142.78,-236.39 154.02,-236.34"/>
    </edge>
    <edge id=":J28_4" function="internal">
        <lane id=":J28_4_0" index="0" speed="7.33" length="1.65" shape="142.78,-236.39 144.39,-236.02"/>
    </edge>
    <edge id=":J28_5" function="internal">
        <lane id=":J28_5_0" index="0" speed="7.33" length="10.07" shape="144.39,-236.02 145.22,-235.83 146.96,-234.17 148.00,-231.42 148.34,-227.57"/>
    </edge>
    <edge id=":J29_0" function="internal">
        <lane id=":J29_0_0" index="0" speed="3.65" length="4.67" shape="-116.91,-232.93 -118.11,-233.72 -118.52,-234.52 -118.13,-235.32 -116.93,-236.13"/>
    </edge>
    <edge id=":J30_0" function="internal">
        <lane id=":J30_0_0" index="0" speed="13.89" length="11.22" shape="-122.53,117.37 -122.75,106.15"/>
    </edge>
    <edge id=":J30_1" function="internal">
        <lane id=":J30_1_0" index="0" speed="6.49" length="9.03" shape="-128.22,111.86 -125.77,111.47 -124.05,110.38 -123.04,108.61 -122.75,106.15"/>
    </edge>
    <edge id=":J31_0" function="internal">
        <lane id=":J31_0_0" index="0" speed="6.52" length="8.98" shape="-163.38,106.94 -162.96,109.36 -161.87,111.08 -160.11,112.10 -157.68,112.40"/>
    </edge>
    <edge id=":J31_1" function="internal">
        <lane id=":J31_1_0" index="0" speed="13.89" length="11.11" shape="-168.79,112.54 -157.68,112.40"/>
    </edge>
    <edge id=":J32_0" function="internal">
        <lane id=":J32_0_0" index="0" speed="6.48" length="9.03" shape="-305.27,107.20 -304.94,109.66 -303.90,111.41 -302.16,112.46 -299.70,112.81"/>
    </edge>
    <edge id=":J32_1" function="internal">
        <lane id=":J32_1_0" index="0" speed="13.89" length="11.21" shape="-305.27,107.20 -305.35,118.41"/>
    </edge>
    <edge id=":J32_2" function="internal">
        <lane id=":J32_2_0" index="0" speed="13.89" length="11.23" shape="-308.55,118.40 -308.47,107.17"/>
    </edge>
    <edge id=":J32_3" function="internal">
        <lane id=":J32_3_0" index="0" speed="7.35" length="2.50" shape="-308.55,118.40 -307.99,115.96"/>
    </edge>
    <edge id=":J32_4" function="internal">
        <lane id=":J32_4_0" index="0" speed="7.35" length="9.25" shape="-307.99,115.96 -306.33,114.21 -303.57,113.16 -299.70,112.81"/>
    </edge>
    <edge id=":J33_0" function="internal">
        <lane id=":J33_0_0" index="0" speed="7.40" length="11.90" shape="-295.33,5.74 -299.24,6.09 -302.03,7.15 -303.72,8.91 -304.31,11.39"/>
    </edge>
    <edge id=":J33_1" function="internal">
        <lane id=":J33_1_0" index="0" speed="13.89" length="17.76" shape="-295.33,5.74 -313.08,5.77"/>
        <lane id=":J33_1_1" index="1" speed="13.89" length="17.76" shape="-295.33,2.54 -313.10,2.57"/>
    </edge>
    <edge id=":J33_3" function="internal">
        <lane id=":J33_3_0" index="0" speed="7.26" length="11.59" shape="-300.81,-12.54 -300.51,-8.75 -299.50,-6.04 -297.76,-4.41 -295.31,-3.86"/>
    </edge>
    <edge id=":J33_4" function="internal">
        <lane id=":J33_4_0" index="0" speed="13.89" length="23.98" shape="-304.01,-12.59 -304.31,11.39"/>
    </edge>
    <edge id=":J33_5" function="internal">
        <lane id=":J33_5_0" index="0" speed="6.64" length="9.29" shape="-313.17,-7.02 -310.59,-7.39 -308.74,-8.45 -307.61,-10.20 -307.21,-12.63"/>
    </edge>
    <edge id=":J33_6" function="internal">
        <lane id=":J33_6_0" index="0" speed="13.89" length="17.84" shape="-313.15,-3.82 -295.31,-3.86"/>
    </edge>
    <edge id=":J33_7" function="internal">
        <lane id=":J33_7_0" index="0" speed="6.47" length="9.03" shape="-307.50,11.36 -307.83,8.90 -308.87,7.15 -310.62,6.11 -313.08,5.77"/>
    </edge>
    <edge id=":J34_0" function="internal">
        <lane id=":J34_0_0" index="0" speed="13.89" length="0.93" shape="-20.04,45.06 -20.30,44.99 -20.47,44.91 -20.62,44.79 -20.81,44.59"/>
    </edge>
    <edge id=":J35_0" function="internal">
        <lane id=":J35_0_0" index="0" speed="13.89" length="0.80" shape="-38.73,24.67 -38.88,24.49 -38.98,24.36 -39.04,24.20 -39.10,23.97"/>
    </edge>
    <edge id=":J36_0" function="internal">
        <lane id=":J36_0_0" index="0" speed="13.89" length="14.38" shape="-122.22,152.08 -122.32,137.70"/>
    </edge>
    <edge id=":J36_1" function="internal">
        <lane id=":J36_1_0" index="0" speed="6.50" length="9.03" shape="-122.22,152.08 -121.86,149.63 -120.81,147.88 -119.05,146.84 -116.60,146.51"/>
    </edge>
    <edge id=":J37_0" function="internal">
        <lane id=":J37_0_0" index="0" speed="3.90" length="2.59" shape="-167.43,-112.62 -166.73,-112.52 -166.23,-112.21 -165.93,-111.71 -165.84,-111.01"/>
    </edge>
    <edge id=":J38_0" function="internal">
        <lane id=":J38_0_0" index="0" speed="6.51" length="9.00" shape="-263.47,-118.55 -263.12,-116.11 -262.07,-114.36 -260.33,-113.31 -257.89,-112.95"/>
    </edge>
    <edge id=":J38_1" function="internal">
        <lane id=":J38_1_0" index="0" speed="7.34" length="11.69" shape="-263.47,-118.55 -263.81,-114.72 -264.85,-111.97 -266.59,-110.31 -269.03,-109.74"/>
    </edge>
    <edge id=":J39_0" function="internal">
        <lane id=":J39_0_0" index="0" speed="6.58" length="8.76" shape="-258.43,-323.80 -260.70,-323.29 -262.33,-322.16 -263.30,-320.38 -263.62,-317.98"/>
    </edge>
    <edge id=":J39_1" function="internal">
        <lane id=":J39_1_0" index="0" speed="13.89" length="10.66" shape="-258.43,-323.80 -269.06,-323.02"/>
    </edge>
    <edge id=":J39_2" function="internal">
        <lane id=":J39_2_0" index="0" speed="13.89" length="10.66" shape="-269.30,-326.21 -258.66,-326.99"/>
    </edge>
    <edge id=":J39_3" function="internal">
        <lane id=":J39_3_0" index="0" speed="7.06" length="2.51" shape="-269.30,-326.21 -266.82,-325.85"/>
    </edge>
    <edge id=":J39_4" function="internal">
        <lane id=":J39_4_0" index="0" speed="7.06" length="8.92" shape="-266.82,-325.85 -265.05,-324.36 -263.98,-321.74 -263.62,-317.98"/>
    </edge>
    <edge id=":J42_0" function="internal">
        <lane id=":J42_0_0" index="0" speed="13.89" length="8.43" shape="50.98,-342.10 48.51,-341.56 46.98,-340.44 45.44,-339.33 42.97,-338.83"/>
        <lane id=":J42_0_1" index="1" speed="13.89" length="8.43" shape="50.98,-342.10 42.97,-342.03"/>
    </edge>
    <edge id=":J42_2" function="internal">
        <lane id=":J42_2_0" index="0" speed="13.89" length="7.96" shape="42.97,-345.23 50.92,-345.30"/>
    </edge>
    <edge id=":J43_0" function="internal">
        <lane id=":J43_0_0" index="0" speed="13.89" length="7.97" shape="-43.04,-339.40 -50.99,-338.89"/>
    </edge>
    <edge id=":J43_1" function="internal">
        <lane id=":J43_1_0" index="0" speed="13.89" length="8.03" shape="-51.22,-342.09 -43.21,-342.59"/>
    </edge>
    <edge id=":J44_0" function="internal">
        <lane id=":J44_0_0" index="0" speed="7.33" length="11.53" shape="-293.98,-109.48 -297.77,-109.11 -300.49,-108.07 -302.14,-106.37 -302.72,-104.01"/>
    </edge>
    <edge id=":J44_1" function="internal">
        <lane id=":J44_1_0" index="0" speed="4.72" length="9.35" shape="-305.92,-104.05 -304.28,-106.43 -302.67,-107.21 -301.08,-106.39 -299.52,-103.96"/>
    </edge>
    <edge id=":J45_0" function="internal">
        <lane id=":J45_0_0" index="0" speed="13.89" length="8.03" shape="-359.07,6.12 -367.10,6.15"/>
        <lane id=":J45_0_1" index="1" speed="13.89" length="8.03" shape="-359.09,2.92 -367.10,2.95"/>
    </edge>
    <edge id=":J45_2" function="internal">
        <lane id=":J45_2_0" index="0" speed="13.89" length="8.52" shape="-367.11,-3.45 -364.66,-3.95 -363.13,-5.05 -361.61,-6.16 -359.16,-6.68"/>
        <lane id=":J45_2_1" index="1" speed="13.89" length="8.52" shape="-367.11,-0.25 -364.65,-0.75 -363.12,-1.85 -361.59,-2.96 -359.14,-3.48"/>
        <lane id=":J45_2_2" index="2" speed="13.89" length="8.52" shape="-367.11,-0.25 -359.11,-0.28"/>
    </edge>
    <edge id=":J5_0" function="internal">
        <lane id=":J5_0_0" index="0" speed="6.88" length="8.12" shape="-4.90,53.44 -5.21,51.49 -6.14,49.90 -7.69,48.68 -9.86,47.82"/>
    </edge>
    <edge id=":J5_1" function="internal">
        <lane id=":J5_1_0" index="0" speed="13.89" length="10.04" shape="-4.90,53.44 -4.87,43.38"/>
        <lane id=":J5_1_1" index="1" speed="13.89" length="10.04" shape="-1.70,53.43 -1.67,43.41"/>
    </edge>
    <edge id=":J5_3" function="internal">
        <lane id=":J5_3_0" index="0" speed="7.35" length="8.73" shape="11.83,46.25 10.10,47.22 8.88,48.74 8.14,50.80 7.90,53.40"/>
    </edge>
    <edge id=":J5_4" function="internal">
        <lane id=":J5_4_0" index="0" speed="13.89" length="9.97" shape="4.73,43.46 4.70,53.41"/>
        <lane id=":J5_4_1" index="1" speed="13.89" length="9.97" shape="1.53,43.43 1.50,53.42"/>
    </edge>
    <edge id=":J6_0" function="internal">
        <lane id=":J6_0_0" index="0" speed="6.56" length="7.65" shape="8.63,-33.88 8.88,-31.85 9.68,-30.26 11.04,-29.10 12.94,-28.36"/>
    </edge>
    <edge id=":J6_1" function="internal">
        <lane id=":J6_1_0" index="0" speed="13.89" length="10.05" shape="5.43,-33.92 5.32,-23.87"/>
        <lane id=":J6_1_1" index="1" speed="13.89" length="10.05" shape="2.23,-33.95 2.12,-23.91"/>
    </edge>
    <edge id=":J6_3" function="internal">
        <lane id=":J6_3_0" index="0" speed="7.54" length="8.90" shape="-9.41,-27.54 -7.14,-28.69 -5.51,-30.15 -4.52,-31.93 -4.17,-34.03"/>
    </edge>
    <edge id=":J6_4" function="internal">
        <lane id=":J6_4_0" index="0" speed="13.89" length="10.06" shape="-4.28,-23.97 -4.17,-34.03"/>
        <lane id=":J6_4_1" index="1" speed="13.89" length="10.06" shape="-1.08,-23.94 -0.97,-33.99"/>
    </edge>
    <edge id=":J7_0" function="internal">
        <lane id=":J7_0_0" index="0" speed="6.46" length="9.03" shape="-161.01,5.92 -163.46,6.30 -165.19,7.38 -166.19,9.15 -166.46,11.61"/>
    </edge>
    <edge id=":J7_1" function="internal">
        <lane id=":J7_1_0" index="0" speed="13.89" length="11.34" shape="-161.01,5.92 -172.37,5.99"/>
        <lane id=":J7_1_1" index="1" speed="13.89" length="11.34" shape="-161.04,2.72 -172.36,2.79"/>
    </edge>
    <edge id=":J7_3" function="internal">
        <lane id=":J7_3_0" index="0" speed="6.47" length="9.05" shape="-166.71,-9.25 -166.38,-6.79 -165.33,-5.04 -163.58,-4.00 -161.11,-3.68"/>
    </edge>
    <edge id=":J7_4" function="internal">
        <lane id=":J7_4_0" index="0" speed="8.13" length="14.60" shape="-166.71,-9.25 -167.10,-3.98 -168.17,-0.21 -169.93,2.04 -172.36,2.79"/>
    </edge>
    <edge id=":J7_5" function="internal">
        <lane id=":J7_5_0" index="0" speed="13.89" length="11.26" shape="-172.35,-3.61 -161.11,-3.68"/>
        <lane id=":J7_5_1" index="1" speed="13.89" length="11.26" shape="-172.36,-0.41 -161.08,-0.48"/>
    </edge>
    <edge id=":J8_0" function="internal">
        <lane id=":J8_0_0" index="0" speed="6.53" length="8.94" shape="156.21,-343.96 153.81,-343.60 152.08,-342.56 151.02,-340.83 150.62,-338.40"/>
    </edge>
    <edge id=":J8_1" function="internal">
        <lane id=":J8_1_0" index="0" speed="13.89" length="11.04" shape="156.21,-343.96 145.18,-343.86"/>
    </edge>
    <edge id=":J8_2" function="internal">
        <lane id=":J8_2_0" index="0" speed="13.89" length="11.09" shape="145.12,-347.06 156.20,-347.16"/>
    </edge>
    <edge id=":J8_3" function="internal">
        <lane id=":J8_3_0" index="0" speed="7.20" length="2.64" shape="145.12,-347.06 147.60,-346.56 147.68,-346.49"/>
    </edge>
    <edge id=":J8_4" function="internal">
        <lane id=":J8_4_0" index="0" speed="7.20" length="9.01" shape="147.68,-346.49 149.34,-344.95 150.35,-342.23 150.62,-338.40"/>
    </edge>
    <edge id=":J9_0" function="internal">
        <lane id=":J9_0_0" index="0" speed="6.50" length="9.03" shape="153.86,19.76 151.41,20.10 149.66,21.15 148.61,22.90 148.26,25.35"/>
    </edge>
    <edge id=":J9_1" function="internal">
        <lane id=":J9_1_0" index="0" speed="13.89" length="14.40" shape="153.86,19.76 139.46,19.75"/>
    </edge>
    <edge id=":J9_2" function="internal">
        <lane id=":J9_2_0" index="0" speed="7.30" length="11.76" shape="153.86,19.76 150.01,19.39 147.26,18.33 145.64,16.55 145.12,14.07"/>
    </edge>
    <edge id=":J9_3" function="internal">
        <lane id=":J9_3_0" index="0" speed="13.89" length="11.23" shape="148.32,14.12 148.26,25.35"/>
    </edge>

    <edge id="-E0" from="J2" to="J3" priority="2">
        <lane id="-E0_0" index="0" speed="13.89" length="116.54" shape="4.97,153.20 5.29,269.74"/>
        <lane id="-E0_1" index="1" speed="13.89" length="116.54" shape="1.77,153.20 2.09,269.75"/>
    </edge>
    <edge id="-E13" from="J14" to="J21" priority="2">
        <lane id="-E13_0" index="0" speed="13.89" length="182.97" shape="337.02,5.20 154.05,4.62"/>
        <lane id="-E13_1" index="1" speed="13.89" length="182.97" shape="337.03,2.00 154.06,1.42"/>
    </edge>
    <edge id="-E16" from="J21" to="J9" priority="-1">
        <lane id="-E16_0" index="0" speed="13.89" length="3.84" shape="148.38,10.28 148.32,14.12"/>
    </edge>
    <edge id="-E17" from="J0" to="J24" priority="-1">
        <lane id="-E17_0" index="0" speed="13.89" length="89.96" shape="-1.67,-242.84 0.13,-332.79"/>
        <lane id="-E17_1" index="1" speed="13.89" length="89.96" shape="1.53,-242.78 3.33,-332.73"/>
    </edge>
    <edge id="-E2" from="J25" to="J7" priority="2">
        <lane id="-E2_0" index="0" speed="13.89" length="30.27" shape="-130.74,5.61 -161.01,5.92"/>
        <lane id="-E2_1" index="1" speed="13.89" length="30.27" shape="-130.78,2.41 -161.04,2.72"/>
    </edge>
    <edge id="-E21" from="J18" to="J1" priority="2">
        <lane id="-E21_0" index="0" speed="13.89" length="26.86" shape="37.64,4.75 10.78,4.83"/>
        <lane id="-E21_1" index="1" speed="13.89" length="26.86" shape="37.63,1.55 10.77,1.63"/>
    </edge>
    <edge id="-E25" from="J18" to="J21" priority="2">
        <lane id="-E25_0" index="0" speed="13.89" length="89.05" shape="50.43,-4.88 139.48,-4.99"/>
        <lane id="-E25_1" index="1" speed="13.89" length="89.05" shape="50.44,-1.68 139.49,-1.79"/>
    </edge>
    <edge id="-E26" from="J1" to="J22" priority="2">
        <lane id="-E26_0" index="0" speed="13.89" length="24.48" shape="-10.18,4.95 -34.67,5.15"/>
        <lane id="-E26_1" index="1" speed="13.89" length="24.48" shape="-10.21,1.75 -34.70,1.95"/>
    </edge>
    <edge id="-E27" from="J41" to="J24" priority="-1">
        <lane id="-E27_0" index="0" speed="13.89" length="139.33" shape="11.80,-493.33 10.08,-354.01"/>
        <lane id="-E27_1" index="1" speed="13.89" length="139.33" shape="8.60,-493.37 6.88,-354.05"/>
    </edge>
    <edge id="-E29" from="J42" to="J24" priority="-1">
        <lane id="-E29_0" index="0" speed="13.89" length="27.33" shape="42.97,-338.83 15.64,-338.79"/>